tests/data/power_flow/dummy-test-line-into-itself/asym_output_batch.json
{
  "version": "1.0",
  "type": "asym_output",
  "is_batch": true,
  "attributes": {},
  "data": [
    {
      "node": [
        {"id": 1, "energized": 1, "u_pu": [1.0500026617673375, 1.0500026861214569, 1.0500026124692983], "u": [6062.1931942119581, 6062.1933348205321, 6062.1929095895966], "u_angle": [-1.4832085018044952e-06, -2.0943962754744163, 2.0943933209409646], "p": [449675.58787595929, 335421.00166105793, 560453.31676893623], "q": [-981235.41197776445, -978376.30039988051, -974972.90706424485]},
        {"id": 2, "energized": 1, "u_pu": [1.0489305412180272, 1.0488408010290586, 1.047862975371989], "u": [6056.003303334478, 6055.4851881118975, 6049.8397090486005], "u_angle": [-0.0031192166967468683, -2.0971289939257418, 2.0904277197067258], "p": [0.0016991138504116397, 0.0037284466839334995, -0.003119483334405209], "q": [-0.0026769212471873154, -0.0064291658102272617, -0.0016728438498193419]},
        {"id": 3, "energized": 1, "u_pu": [1.0489305411522316, 1.0488408010053642, 1.04786297529498795], "u": [6056.0033029546424, 6055.485187975122, 6049.8397086040414], "u_angle": [-0.0031192079794357627, -2.0971289867084129, 2.0904277299238556], "p": [-440102.09839980368, -330020.10079295578, -549008.40602486604], "q": [-220051.05491385818, -220013.40255902623, -219603.34729454646]}
      ],
      "line": [
        {"id": 4, "energized": 1, "p_from": [447366.50582515739, 333111.91732260247, 558144.23634554166], "q_from": [-958144.59097641951, -955285.4754396549, -951882.08489887649], "i_from": [174.43180283068381, 166.88654765669233, 182.02178483504079], "s_from": [1057439.2879742936, 1011698.5168756095, 1103451.1734178273], "p_to": [-442404.25245192216, -332330.57331481267, -551303.81058868743], "q_to": [-197013.57952787445, -196972.45740831006, -196601.52011541839], "i_to": [79.968423817996026, 63.796408946461177, 96.748053573087233], "s_to": [484289.0388042354, 386318.20943002496, 585310.21627962426]},
        {"id": 5, "energized": 0, "p_from": [0, 0, 0], "q_from": [0, 0, 0], "i_from": [0, 0, 0], "s_from": [0, 0, 0], "p_to": [0, 0, 0], "q_to": [0, 0, 0], "i_to": [0, 0, 0], "s_to": [0, 0, 0]},
        {"id": 6, "energized": 0, "p_from": [0, 0, 0], "q_from": [0, 0, 0], "i_from": [0, 0, 0], "s_from": [0, 0, 0], "p_to": [0, 0, 0], "q_to": [0, 0, 0], "i_to": [0, 0, 0], "s_to": [0, 0, 0]}
      ],
      "link": [
        {"id": 9, "energized": 1, "loading": 0, "p_from": [442404.2597806378, 332330.5719014479, 551303.81168766855], "q_from": [197013.57873054428, 196972.45831210419, 196601.51816117906], "i_from": [79.968424869929734, 63.796408821775906, 96.748053635686489], "s_from": [484289.04517474934, 386318.20867499511, 585310.21665833984], "p_to": [-442404.2565831634, -332330.56986645702, -551303.80700757552], "q_to": [-197013.58192801871, -196972.4603470951, -196601.52284127194], "i_to": [79.968424869929734, 63.796408821775906, 96.748053635686489], "s_to": [484289.04355457966, 386318.20796197531, 585310.21382216911]}
      ],
      "shunt": [
        {"id": 7, "energized": 1, "p": [2309.0820508172474, 2309.0843384697728, 2309.0804234062239], "q": [-23090.821001339511, -23090.824960229871, -23090.822165361933], "i": [3.8279855420233333, 3.8279861405897866, 3.8279858860972578], "s": [23205.98790039563, 23205.992067268773, 23205.988896707848], "pf": [0.099503716916868712, 0.099503797630210097, 0.099503642515911275]},
        {"id": 8, "energized": 1, "p": [2302.1548961487756, 2310.4680800382425, 2295.4022794086763], "q": [-23037.473316395561, -23040.939150568447, -23001.828741266068], "i": [3.8230190216611373, 3.8240523609288242, 3.820940358258869], "s": [23152.21574643557, 23156.492387429349, 23116.076593289967], "pf": [0.099435618662252964, 0.099776254597716843, 0.099298956297582772]}
      ],
      "source": [
        {"id": 10, "energized": 1, "p": [449675.58787595917, 335421.00166105776, 560453.31676893623], "q": [-981235.41197776434, -978376.30039988051, -974972.90706424497], "i": [178.04877122315222, 170.61090397350927, 185.50712230088268], "s": [1079366.0491467952, 1034276.2849159138, 1124579.961490781], "pf": [0.4166108446159314, 0.3243050345416258, 0.4983668047987631]}
      ],
      "sym_load": [
        {"id": 11, "energized": 1, "p": [220051.0545876445, 220013.4043685068, 219603.3609028738], "q": [110025.52729382225, 110006.7021842534, 109801.6804514369], "i": [40.624905038748508, 40.621429477109757, 40.583558330579557], "s": [246024.55828924503, 245982.4640645652, 245524.02153312269], "pf": [0.89442719099991586, 0.89442719099991586, 0.89442719099991597]}
      ],
      "asym_load": [
        {"id": 12, "energized": 1, "p": [220051.0545876445, 110006.7021842534, 329405.0413543107], "q": [110025.52729382225, 110006.7021842534, 109801.6804514369], "i": [40.624905038748508, 25.691247791913895, 57.393818600465224], "s": [246024.55828924503, 155572.97018090912, 347223.40114052594], "pf": [0.89442719099991586, 0.70710678118654757, 0.94868329805051388]}
      ]
    },
    {
      "node": [
        {"id": 1, "energized": 1, "u_pu": [1.0500026617673375, 1.0500026861214569, 1.0500026124692983], "u": [6062.1931942119581, 6062.1933348205321, 6062.1929095895966], "u_angle": [-1.4832085018044952e-06, -2.0943962754744163, 2.0943933209409646], "p": [449675.58787595929, 335421.00166105793, 560453.31676893623], "q": [-981235.41197776445, -978376.30039988051, -974972.90706424485]},
        {"id": 2, "energized": 1, "u_pu": [1.0489305412180272, 1.0488408010290586, 1.047862975371989], "u": [6056.003303334478, 6055.4851881118975, 6049.8397090486005], "u_angle": [-0.0031192166967468683, -2.0971289939257418, 2.0904277197067258], "p": [0.0016991138504116397, 0.0037284466839334995, -0.003119483334405209], "q": [-0.0026769212471873154, -0.0064291658102272617, -0.0016728438498193419]},
        {"id": 3, "energized": 1, "u_pu": [1.0489305411522316, 1.0488408010053642, 1.04786297529498795], "u": [6056.0033029546424, 6055.485187975122, 6049.8397086040414], "u_angle": [-0.0031192079794357627, -2.0971289867084129, 2.0904277299238556], "p": [-440102.09839980368, -330020.10079295578, -549008.40602486604], "q": [-220051.05491385818, -220013.40255902623, -219603.34729454646]}
      ],
      "line": [
        {"id": 4, "energized": 1, "p_from": [447366.50582515739, 333111.91732260247, 558144.23634554166], "q_from": [-958144.59097641951, -955285.4754396549, -951882.08489887649], "i_from": [174.43180283068381, 166.88654765669233, 182.02178483504079], "s_from": [1057439.2879742936, 1011698.5168756095, 1103451.1734178273], "p_to": [-442404.25245192216, -332330.57331481267, -551303.81058868743], "q_to": [-197013.57952787445, -196972.45740831006, -196601.52011541839], "i_to": [79.968423817996026, 63.796408946461177, 96.748053573087233], "s_to": [484289.0388042354, 386318.20943002496, 585310.21627962426]},
        {"id": 5, "energized": 1, "p_from": [1154.5410254086237, 1154.5421692348864, 1154.5402117031119], "q_from": [-11545.410500669755, -11545.412480114936, -11545.411082680967], "i_from": [1.9139927710116666, 1.9139930702948933, 1.9139929430486289], "s_from": [11602.993950197815, 11602.996033634387, 11602.994448353924], "p_to": [1154.5410254086237, 1154.5421692348864, 1154.5402117031119], "q_to": [-11545.410500669755, -11545.412480114936, -11545.411082680967], "i_to": [1.9139927710116666, 1.9139930702948933, 1.9139929430486289], "s_to": [11602.993950197815, 11602.996033634387, 11602.994448353924]},
        {"id": 6, "energized": 1, "p_from": [1151.0774480743878, 1155.2340400191213, 1147.7011397043382], "q_from": [-11518.73665819778, -11520.469575284224, -11500.914370633034], "i_from": [1.9115095108305686, 1.9120261804644121, 1.9104701791294345], "s_from": [11576.107873217785, 11578.246193714675, 11558.038296644983], "p_to": [1151.0774480743878, 1155.2340400191213, 1147.7011397043382], "q_to": [-11518.73665819778, -11520.469575284224, -11500.914370633034], "i_to": [1.9115095108305686, 1.9120261804644121, 1.9104701791294345], "s_to": [11576.107873217785, 11578.246193714675, 11558.038296644983]}
      ],
      "link": [
        {"id": 9, "energized": 1, "loading": 0, "p_from": [442404.2597806378, 332330.5719014479, 551303.81168766855], "q_from": [197013.57873054428, 196972.45831210419, 196601.51816117906], "i_from": [79.968424869929734, 63.796408821775906, 96.748053635686489], "s_from": [484289.04517474934, 386318.20867499511, 585310.21665833984], "p_to": [-442404.2565831634, -332330.56986645702, -551303.80700757552], "q_to": [-197013.58192801871, -196972.4603470951, -196601.52284127194], "i_to": [79.968424869929734, 63.796408821775906, 96.748053635686489], "s_to": [484289.04355457966, 386318.20796197531, 585310.21382216911]}
      ],
      "shunt": [
        {"id": 7, "energized": 0, "p": [0, 0, 0], "q": [0, 0, 0], "i": [0, 0, 0], "s": [0, 0, 0], "pf": [0, 0, 0]},
        {"id": 8, "energized": 0, "p": [0, 0, 0], "q": [0, 0, 0], "i": [0, 0, 0], "s": [0, 0, 0], "pf": [0, 0, 0]}
      ],
      "source": [
        {"id": 10, "energized": 1, "p": [449675.58787595917, 335421.00166105776, 560453.31676893623], "q": [-981235.41197776434, -978376.30039988051, -974972.90706424497], "i": [178.04877122315222, 170.61090397350927, 185.50712230088268], "s": [1079366.0491467952, 1034276.2849159138, 1124579.961490781], "pf": [0.4166108446159314, 0.3243050345416258, 0.4983668047987631]}
      ],
      "sym_load": [
        {"id": 11, "energized": 1, "p": [220051.0545876445, 220013.4043685068, 219603.3609028738], "q": [110025.52729382225, 110006.7021842534, 109801.6804514369], "i": [40.624905038748508, 40.621429477109757, 40.583558330579557], "s": [246024.55828924503, 245982.4640645652, 245524.02153312269], "pf": [0.89442719099991586, 0.89442719099991586, 0.89442719099991597]}
      ],
      "asym_load": [
        {"id": 12, "energized": 1, "p": [220051.0545876445, 110006.7021842534, 329405.0413543107], "q": [110025.52729382225, 110006.7021842534, 109801.6804514369], "i": [40.624905038748508, 25.691247791913895, 57.393818600465224], "s": [246024.55828924503, 155572.97018090912, 347223.40114052594], "pf": [0.89442719099991586, 0.70710678118654757, 0.94868329805051388]}
      ]
    }
  ]
}