tests/data/power_flow/dummy-test-line-into-itself/sym_output_batch.json
{
  "version": "1.0",
  "type": "sym_output",
  "is_batch": true,
  "attributes": {},
  "data": [
    {
      "node": [
        {"id": 1, "energized": 1, "u_pu": 1.050002653570703, "u": 10500.026535707029, "u_angle": -1.4793528305044663e-06, "p": 1345653.3392703342, "q": -2934719.4520267113},
        {"id": 2, "energized": 1, "u_pu": 1.0485445661489112, "u": 10485.445661489111, "u_angle": -0.0032736161797103387, "p": 0.017979197783649453, "q": -0.0054018350275461787},
        {"id": 3, "energized": 1, "u_pu": 1.048544566103154, "u": 10485.44566103154, "u_angle": -0.0032736074624537736, "p": -1319334.8476324468, "q": -659667.42426266508}
      ],
      "line": [
        {"id": 4, "energized": 1, "p_from": 1338726.0924560847, "q_from": -2865446.9838841902, "i_from": 173.90559127246948, "s_from": 3162747.8508527582, "p_to": -1326242.8543147412, "q_to": -590587.19597046508, "i_to": 79.938915357945049, "s_to": 1451796.592042139},
        {"id": 5, "energized": 0, "p_from": 0, "q_from": 0, "i_from": 0, "s_from": 0, "p_to": 0, "q_to": 0, "i_to": 0, "s_to": 0},
        {"id": 6, "energized": 0, "p_from": 0, "q_from": 0, "i_from": 0, "s_from": 0, "p_to": 0, "q_to": 0, "i_to": 0, "s_to": 0}
      ],
      "link": [
        {"id": 9, "energized": 1, "loading": 0, "p_from": 1326242.8673741999, "q_from": 590587.21313346216, "i_from": 79.938915663603737, "s_from": 1451796.5975933056, "p_to": -1326242.8577888545, "q_to": -590587.21313346256, "i_to": 79.938915663603737, "s_to": 1451796.5927362107}
      ],
      "shunt": [
        {"id": 7, "energized": 1, "p": 6927.2468142502858, "q": -69272.468142502854, "i": 3.8279858566670555, "s": 69617.968880021304, "pf": 0.099503719020998901},
        {"id": 8, "energized": 1, "p": 6908.0210673006668, "q": -69080.210673006673, "i": 3.8226701068087694, "s": 69424.752514454492, "pf": 0.099503719020998901}
      ],
      "source": [
        {"id": 10, "energized": 1, "p": 1345653.339270334, "q": -2934719.4520267108, "i": 177.52228086868132, "s": 3228523.0635064943, "pf": 0.41680152589922087}
      ],
      "sym_load": [
        {"id": 11, "energized": 1, "p": 659667.41990631109, "q": 329833.70995315554, "i": 40.60995628864648, "s": 737530.59672620485, "pf": 0.89442719099991574}
      ],
      "asym_load": [
        {"id": 12, "energized": 1, "p": 659667.41990631109, "q": 329833.70995315554, "i": 40.60995628864648, "s": 737530.59672620485, "pf": 0.89442719099991574}
      ]
    },
    {
      "node": [
        {"id": 1, "energized": 1, "u_pu": 1.050002653570703, "u": 10500.026535707029, "u_angle": -1.4793528305044663e-06, "p": 1345653.3392703342, "q": -2934719.4520267113},
        {"id": 2, "energized": 1, "u_pu": 1.0485445661489112, "u": 10485.445661489111, "u_angle": -0.0032736161797103387, "p": 0.017979197783649453, "q": -0.0054018350275461787},
        {"id": 3, "energized": 1, "u_pu": 1.048544566103154, "u": 10485.44566103154, "u_angle": -0.0032736074624537736, "p": -1319334.8476324468, "q": -659667.42426266508}
      ],
      "line": [
        {"id": 4, "energized": 1, "p_from": 1338726.0924560847, "q_from": -2865446.9838841902, "i_from": 173.90559127246948, "s_from": 3162747.8508527582, "p_to": -1326242.8543147412, "q_to": -590587.19597046508, "i_to": 79.938915357945049, "s_to": 1451796.592042139},
        {"id": 5, "energized": 1, "p_from": 3463.6234071251429, "q_from": -34636.234071251427, "i_from": 1.9139929283335277, "s_from": 34808.984440010652, "p_to": 3463.6234071251429, "q_to": -34636.234071251427, "i_to": 1.9139929283335277, "s_to": 34808.984440010652},
        {"id": 6, "energized": 1, "p_from": 3454.0105336503334, "q_from": -34540.105336503337, "i_from": 1.9113350534043847, "s_from": 34712.376257227246, "p_to": 3454.0105336503334, "q_to": -34540.105336503337, "i_to": 1.9113350534043847, "s_to": 34712.376257227246}
      ],
      "link": [
        {"id": 9, "energized": 1, "loading": 0, "p_from": 1326242.8673741999, "q_from": 590587.21313346216, "i_from": 79.938915663603737, "s_from": 1451796.5975933056, "p_to": -1326242.8577888545, "q_to": -590587.21313346256, "i_to": 79.938915663603737, "s_to": 1451796.5927362107}
      ],
      "shunt": [
        {"id": 7, "energized": 0, "p": 0, "q": 0, "i": 0, "s": 0, "pf": 0},
        {"id": 8, "energized": 0, "p": 0, "q": 0, "i": 0, "s": 0, "pf": 0}
      ],
      "source": [
        {"id": 10, "energized": 1, "p": 1345653.339270334, "q": -2934719.4520267108, "i": 177.52228086868132, "s": 3228523.0635064943, "pf": 0.41680152589922087}
      ],
      "sym_load": [
        {"id": 11, "energized": 1, "p": 659667.41990631109, "q": 329833.70995315554, "i": 40.60995628864648, "s": 737530.59672620485, "pf": 0.89442719099991574}
      ],
      "asym_load": [
        {"id": 12, "energized": 1, "p": 659667.41990631109, "q": 329833.70995315554, "i": 40.60995628864648, "s": 737530.59672620485, "pf": 0.89442719099991574}
      ]
    }
  ]
}